-------------------------------------------------------------------------------
Page 1                     Optimal Data Analysis           08:17:17  06-04-26
 
VARS V1 TO V5;
CLASS V1;
ATTRIBUTE V2 TO V5;
MISSING ALL (-9);
MCARLO ITER 25000;
LOO;
GO;
 
Note: In all classification performance summary tables, the following
abbreviations are used: NP = Number Predicted; PV = Predictive Value;
NA = Number Actual; PAC = Percentage Accuracy in Classification.
 
Input file:   IRIS_DATA.TXT                                                                                                                       
Output file:  IRIS_CANON_ALL4.OUT                                                                                                                 
Command file: IRIS_CANON_ALL4.PGM                                                                                                                 
 
Class:       V1
Attribute:   V2
Weight:       NONE
Gen:         OFF
Obs:         150
Missing:     0
Excluded:    0
Classes:     3
Solution:    OPTIMAL
Time (sec):  29
Hypothesis:  NONDIRECTIONAL
Categorical: OFF
Priors:      ON
Degen:       OFF
Primary:     MAXSENS
Secondary:   SAMPLEREP
 
-------------------------------------------------------------------------------
Page 2                     Optimal Data Analysis           08:17:46  06-04-26
 
ODA model:
----------
IF V2 <= 5.45 THEN V1 = 1
IF 5.45 < V2 <= 6.15 THEN V1 = 2
IF 6.15 < V2 THEN V1 = 3
 
 
Monte Carlo summary (Fisher randomization):
-------------------------------------------
Iterations:  25000
Estimated p: 0.000000
 
 
Confidence levels for estimated p:
----------------------------------
Desired p   Confidence      Desired p   Confidence
---------   ----------      ---------   ----------
 p<.001       100.00%         p>.001         0.00%
 p<.01        100.00%         p>.01          0.00%
 p<.05        100.00%         p>.05          0.00%
 p<.10        100.00%         p>.10          0.00%
 
 
Classification performance summary:
-----------------------------------
Correct:     112
Incorrect:   38
Overall PAC:   74.67%
Mean PAC:      74.67%
 
Class          Predicted
 V1        1       2       3       
       ------------------------- NA      PAC
A      |       |       |       |
c     1|  45   |   5   |   0   | 50     90.00%
t      |       |       |       |
u     2|   6   |  28   |  16   | 50    56.00%
a      |       |       |       |
l     3|   1   |  10   |  39   | 50    78.00%
       |       |       |       |
       -------------------------
   NP     52      43      55   
   PV    86.54%  65.12%  70.91%  Mean PV   74.19%
 
Effect strength PAC    62.00%      Effect strength PV   61.28%
-------------------------------------------------------------------------------
Page 3                     Optimal Data Analysis           08:17:46  06-04-26
 
Results of leave-one-out analysis
---------------------------------
150 observations
 
Classification performance summary:
-----------------------------------
Correct:     110
Incorrect:   40
Overall PAC:   73.33%
Mean PAC:      73.33%
 
Class          Predicted
 V1        1       2       3       
       ------------------------- NA      PAC
A      |       |       |       |
c     1|  45   |   5   |   0   | 50     90.00%
t      |       |       |       |
u     2|   6   |  28   |  16   | 50    56.00%
a      |       |       |       |
l     3|   1   |  12   |  37   | 50    74.00%
       |       |       |       |
       -------------------------
   NP     52      45      53   
   PV    86.54%  62.22%  69.81%  Mean PV   72.86%
 
Effect strength PAC    60.00%      Effect strength PV   59.29%
 
Summary for Class V1  Attribute V2
----------------------------------
                                           
Performance Index           Train    LOO   
-----------------          ------  ------
Overall Accuracy            74.67%  73.33%
PAC V1=1                    90.00%  90.00%
PAC V1=2                    56.00%  56.00%
PAC V1=3                    78.00%  74.00%
Effect Strength PAC         62.00%  60.00%
PV V1=1                     86.54%  86.54%
PV V1=2                     65.12%  62.22%
PV V1=3                     70.91%  69.81%
Effect Strength PV          61.28%  59.29%
Effect Strength Total       61.64%  59.64%
 
 
Input file:   IRIS_DATA.TXT                                                                                                                       
Output file:  IRIS_CANON_ALL4.OUT                                                                                                                 
Command file: IRIS_CANON_ALL4.PGM                                                                                                                 
 
Class:       V1
Attribute:   V3
Weight:       NONE
Gen:         OFF
Obs:         150
Missing:     0
Excluded:    0
Classes:     3
Solution:    OPTIMAL
Time (sec):  66
Hypothesis:  NONDIRECTIONAL
Categorical: OFF
Priors:      ON
Degen:       OFF
Primary:     MAXSENS
Secondary:   SAMPLEREP
 
-------------------------------------------------------------------------------
Page 4                     Optimal Data Analysis           08:18:52  06-04-26
 
ODA model:
----------
IF V3 <= 2.95 THEN V1 = 2
IF 2.95 < V3 <= 3.35 THEN V1 = 3
IF 3.35 < V3 THEN V1 = 1
 
 
Monte Carlo summary (Fisher randomization):
-------------------------------------------
Iterations:  25000
Estimated p: 0.000000
 
 
Confidence levels for estimated p:
----------------------------------
Desired p   Confidence      Desired p   Confidence
---------   ----------      ---------   ----------
 p<.001       100.00%         p>.001         0.00%
 p<.01        100.00%         p>.01          0.00%
 p<.05        100.00%         p>.05          0.00%
 p<.10        100.00%         p>.10          0.00%
 
 
Classification performance summary:
-----------------------------------
Correct:     89
Incorrect:   61
Overall PAC:   59.33%
Mean PAC:      59.33%
 
Class          Predicted
 V1        1       2       3       
       ------------------------- NA      PAC
A      |       |       |       |
c     1|  31   |   2   |  17   | 50    62.00%
t      |       |       |       |
u     2|   1   |  34   |  15   | 50    68.00%
a      |       |       |       |
l     3|   5   |  21   |  24   | 50    48.00%
       |       |       |       |
       -------------------------
   NP     37      57      56   
   PV    83.78%  59.65%  42.86%  Mean PV   62.10%
 
Effect strength PAC    39.00%      Effect strength PV   43.15%
-------------------------------------------------------------------------------
Page 5                     Optimal Data Analysis           08:18:52  06-04-26
 
Results of leave-one-out analysis
---------------------------------
150 observations
 
Classification performance summary:
-----------------------------------
Correct:     89
Incorrect:   61
Overall PAC:   59.33%
Mean PAC:      59.33%
 
Class          Predicted
 V1        1       2       3       
       ------------------------- NA      PAC
A      |       |       |       |
c     1|  31   |   2   |  17   | 50    62.00%
t      |       |       |       |
u     2|   1   |  34   |  15   | 50    68.00%
a      |       |       |       |
l     3|   5   |  21   |  24   | 50    48.00%
       |       |       |       |
       -------------------------
   NP     37      57      56   
   PV    83.78%  59.65%  42.86%  Mean PV   62.10%
 
Effect strength PAC    39.00%      Effect strength PV   43.15%
 
Summary for Class V1  Attribute V3
----------------------------------
                                           
Performance Index           Train    LOO   
-----------------          ------  ------
Overall Accuracy            59.33%  59.33%
PAC V1=1                    62.00%  62.00%
PAC V1=2                    68.00%  68.00%
PAC V1=3                    48.00%  48.00%
Effect Strength PAC         39.00%  39.00%
PV V1=1                     83.78%  83.78%
PV V1=2                     59.65%  59.65%
PV V1=3                     42.86%  42.86%
Effect Strength PV          43.15%  43.15%
Effect Strength Total       41.07%  41.07%
 
 
Input file:   IRIS_DATA.TXT                                                                                                                       
Output file:  IRIS_CANON_ALL4.OUT                                                                                                                 
Command file: IRIS_CANON_ALL4.PGM                                                                                                                 
 
Class:       V1
Attribute:   V4
Weight:       NONE
Gen:         OFF
Obs:         150
Missing:     0
Excluded:    0
Classes:     3
Solution:    OPTIMAL
Time (sec):  39
Hypothesis:  NONDIRECTIONAL
Categorical: OFF
Priors:      ON
Degen:       OFF
Primary:     MAXSENS
Secondary:   SAMPLEREP
 
-------------------------------------------------------------------------------
Page 6                     Optimal Data Analysis           08:19:31  06-04-26
 
ODA model:
----------
IF V4 <= 2.45 THEN V1 = 1
IF 2.45 < V4 <= 4.75 THEN V1 = 2
IF 4.75 < V4 THEN V1 = 3
 
 
Monte Carlo summary (Fisher randomization):
-------------------------------------------
Iterations:  25000
Estimated p: 0.000000
 
 
Confidence levels for estimated p:
----------------------------------
Desired p   Confidence      Desired p   Confidence
---------   ----------      ---------   ----------
 p<.001       100.00%         p>.001         0.00%
 p<.01        100.00%         p>.01          0.00%
 p<.05        100.00%         p>.05          0.00%
 p<.10        100.00%         p>.10          0.00%
 
 
Classification performance summary:
-----------------------------------
Correct:     143
Incorrect:   7
Overall PAC:   95.33%
Mean PAC:      95.33%
 
Class          Predicted
 V1        1       2       3       
       ------------------------- NA      PAC
A      |       |       |       |
c     1|  50   |   0   |   0   | 50    100.00%
t      |       |       |       |
u     2|   0   |  44   |   6   | 50     88.00%
a      |       |       |       |
l     3|   0   |   1   |  49   | 50    98.00%
       |       |       |       |
       -------------------------
   NP     50      45      55   
   PV   100.00%  97.78%  89.09%  Mean PV   95.62%
 
Effect strength PAC    93.00%      Effect strength PV   93.43%
-------------------------------------------------------------------------------
Page 7                     Optimal Data Analysis           08:19:31  06-04-26
 
Results of leave-one-out analysis
---------------------------------
150 observations
 
Classification performance summary:
-----------------------------------
Correct:     141
Incorrect:   9
Overall PAC:   94.00%
Mean PAC:      94.00%
 
Class          Predicted
 V1        1       2       3       
       ------------------------- NA      PAC
A      |       |       |       |
c     1|  50   |   0   |   0   | 50    100.00%
t      |       |       |       |
u     2|   0   |  44   |   6   | 50     88.00%
a      |       |       |       |
l     3|   0   |   3   |  47   | 50    94.00%
       |       |       |       |
       -------------------------
   NP     50      47      53   
   PV   100.00%  93.62%  88.68%  Mean PV   94.10%
 
Effect strength PAC    91.00%      Effect strength PV   91.15%
 
Summary for Class V1  Attribute V4
----------------------------------
                                           
Performance Index           Train    LOO   
-----------------          ------  ------
Overall Accuracy            95.33%  94.00%
PAC V1=1                   100.00% 100.00%
PAC V1=2                    88.00%  88.00%
PAC V1=3                    98.00%  94.00%
Effect Strength PAC         93.00%  91.00%
PV V1=1                    100.00% 100.00%
PV V1=2                     97.78%  93.62%
PV V1=3                     89.09%  88.68%
Effect Strength PV          93.43%  91.15%
Effect Strength Total       93.22%  91.07%
 
 
Input file:   IRIS_DATA.TXT                                                                                                                       
Output file:  IRIS_CANON_ALL4.OUT                                                                                                                 
Command file: IRIS_CANON_ALL4.PGM                                                                                                                 
 
Class:       V1
Attribute:   V5
Weight:       NONE
Gen:         OFF
Obs:         150
Missing:     0
Excluded:    0
Classes:     3
Solution:    OPTIMAL
Time (sec):  26
Hypothesis:  NONDIRECTIONAL
Categorical: OFF
Priors:      ON
Degen:       OFF
Primary:     MAXSENS
Secondary:   SAMPLEREP
 
-------------------------------------------------------------------------------
Page 8                     Optimal Data Analysis           08:19:57  06-04-26
 
ODA model:
----------
IF V5 <= 0.8 THEN V1 = 1
IF 0.8 < V5 <= 1.65 THEN V1 = 2
IF 1.65 < V5 THEN V1 = 3
 
 
Monte Carlo summary (Fisher randomization):
-------------------------------------------
Iterations:  25000
Estimated p: 0.000000
 
 
Confidence levels for estimated p:
----------------------------------
Desired p   Confidence      Desired p   Confidence
---------   ----------      ---------   ----------
 p<.001       100.00%         p>.001         0.00%
 p<.01        100.00%         p>.01          0.00%
 p<.05        100.00%         p>.05          0.00%
 p<.10        100.00%         p>.10          0.00%
 
 
Classification performance summary:
-----------------------------------
Correct:     144
Incorrect:   6
Overall PAC:   96.00%
Mean PAC:      96.00%
 
Class          Predicted
 V1        1       2       3       
       ------------------------- NA      PAC
A      |       |       |       |
c     1|  50   |   0   |   0   | 50    100.00%
t      |       |       |       |
u     2|   0   |  48   |   2   | 50     96.00%
a      |       |       |       |
l     3|   0   |   4   |  46   | 50    92.00%
       |       |       |       |
       -------------------------
   NP     50      52      48   
   PV   100.00%  92.31%  95.83%  Mean PV   96.05%
 
Effect strength PAC    94.00%      Effect strength PV   94.07%
-------------------------------------------------------------------------------
Page 9                     Optimal Data Analysis           08:19:57  06-04-26
 
Results of leave-one-out analysis
---------------------------------
150 observations
 
Classification performance summary:
-----------------------------------
Correct:     143
Incorrect:   7
Overall PAC:   95.33%
Mean PAC:      95.33%
 
Class          Predicted
 V1        1       2       3       
       ------------------------- NA      PAC
A      |       |       |       |
c     1|  50   |   0   |   0   | 50    100.00%
t      |       |       |       |
u     2|   0   |  48   |   2   | 50     96.00%
a      |       |       |       |
l     3|   0   |   5   |  45   | 50    90.00%
       |       |       |       |
       -------------------------
   NP     50      53      47   
   PV   100.00%  90.57%  95.74%  Mean PV   95.44%
 
Effect strength PAC    93.00%      Effect strength PV   93.16%
 
Summary for Class V1  Attribute V5
----------------------------------
                                           
Performance Index           Train    LOO   
-----------------          ------  ------
Overall Accuracy            96.00%  95.33%
PAC V1=1                   100.00% 100.00%
PAC V1=2                    96.00%  96.00%
PAC V1=3                    92.00%  90.00%
Effect Strength PAC         94.00%  93.00%
PV V1=1                    100.00% 100.00%
PV V1=2                     92.31%  90.57%
PV V1=3                     95.83%  95.74%
Effect Strength PV          94.07%  93.16%
Effect Strength Total       94.04%  93.08%
 
